Version 4
SHEET 1 880 680
WIRE 96 80 0 80
WIRE 0 112 0 80
WIRE 96 128 96 80
WIRE 176 128 96 128
WIRE 400 128 336 128
WIRE 176 192 96 192
WIRE 400 192 336 192
WIRE 400 224 400 192
WIRE 0 240 0 192
WIRE 96 240 96 192
WIRE 96 240 0 240
FLAG 400 224 0
FLAG 400 128 Out
SYMBOL Puentediodo 256 160 R0
SYMATTR InstName X1
SYMBOL voltage 0 96 R0
WINDOW 123 0 0 Left 0
WINDOW 39 0 0 Left 0
SYMATTR InstName V1
SYMATTR Value SINE(0 5 150)
TEXT -34 248 Left 2 !.tran 10ms
